data_image0
    _cell_length_a       19.018
    _cell_length_b       14.303
    _cell_length_c       15.082
    _cell_angle_alpha    90.0
    _cell_angle_beta     90.0
    _cell_angle_gamma    90.0

    _symmetry_space_group_name_H-M    "P 1"
    _symmetry_int_tables_number       1

    loop_
      _symmetry_equiv_pos_as_xyz
      'x, y, z'

    loop_
      _atom_site_label
      _atom_site_occupancy
      _atom_site_fract_x
      _atom_site_fract_y
      _atom_site_fract_z
      _atom_site_thermal_displace_type
      _atom_site_B_iso_or_equiv
      _atom_site_type_symbol
  Si1 1.0000 0.32440 0.20180 0.10320 Biso 1.000 Si
  Si2 1.0000 0.82440 0.70180 0.35320 Biso 1.000 Si
  Si3 1.0000 0.67560 0.20180 0.10320 Biso 1.000 Si
  Si4 1.0000 0.17560 0.70180 0.35320 Biso 1.000 Si
  Si5 1.0000 0.32440 0.79820 0.10320 Biso 1.000 Si
  Si6 1.0000 0.82440 0.29820 0.35320 Biso 1.000 Si
  Si7 1.0000 0.67560 0.79820 0.10320 Biso 1.000 Si
  Si8 1.0000 0.17560 0.29820 0.35320 Biso 1.000 Si
  Si9 1.0000 0.67560 0.79820 0.39680 Biso 1.000 Si
  Si10 1.0000 0.17560 0.29820 0.14680 Biso 1.000 Si
  Si11 1.0000 0.32440 0.79820 0.39680 Biso 1.000 Si
  Si12 1.0000 0.82440 0.29820 0.14680 Biso 1.000 Si
  Si13 1.0000 0.67560 0.20180 0.39680 Biso 1.000 Si
  Si14 1.0000 0.17560 0.70180 0.14680 Biso 1.000 Si
  Si15 1.0000 0.32440 0.20180 0.39680 Biso 1.000 Si
  Si16 1.0000 0.82440 0.70180 0.14680 Biso 1.000 Si
  Si17 1.0000 0.08430 0.20040 0.00000 Biso 1.000 Si
  Si18 1.0000 0.58430 0.70040 0.25000 Biso 1.000 Si
  Si19 1.0000 0.91570 0.20040 0.00000 Biso 1.000 Si
  Si20 1.0000 0.41570 0.70040 0.25000 Biso 1.000 Si
  Si21 1.0000 0.08430 0.79960 0.00000 Biso 1.000 Si
  Si22 1.0000 0.58430 0.29960 0.25000 Biso 1.000 Si
  Si23 1.0000 0.91570 0.79960 0.00000 Biso 1.000 Si
  Si24 1.0000 0.41570 0.29960 0.25000 Biso 1.000 Al
  Si25 1.0000 0.27430 0.00000 0.14675 Biso 1.000 Si
  Si26 1.0000 0.77430 0.50000 0.39675 Biso 1.000 Si
  Si27 1.0000 0.72570 0.00000 0.14675 Biso 1.000 Si
  Si28 1.0000 0.22570 0.50000 0.39675 Biso 1.000 Si
  Si29 1.0000 0.72570 0.00000 0.35325 Biso 1.000 Si
  Si30 1.0000 0.22570 0.50000 0.10325 Biso 1.000 Si
  Si31 1.0000 0.27430 0.00000 0.35325 Biso 1.000 Si
  Si32 1.0000 0.77430 0.50000 0.10325 Biso 1.000 Al
  Si33 1.0000 0.15530 0.00000 0.00000 Biso 1.000 Si
  Si34 1.0000 0.65530 0.50000 0.25000 Biso 1.000 Si
  Si35 1.0000 0.84470 0.00000 0.00000 Biso 1.000 Si
  Si36 1.0000 0.34470 0.50000 0.25000 Biso 1.000 Si
  Si37 1.0000 0.32440 0.20180 0.60320 Biso 1.000 Si
  Si38 1.0000 0.82440 0.70180 0.85320 Biso 1.000 Si
  Si39 1.0000 0.67560 0.20180 0.60320 Biso 1.000 Si
  Si40 1.0000 0.17560 0.70180 0.85320 Biso 1.000 Si
  Si41 1.0000 0.32440 0.79820 0.60320 Biso 1.000 Si
  Si42 1.0000 0.82440 0.29820 0.85320 Biso 1.000 Si
  Si43 1.0000 0.67560 0.79820 0.60320 Biso 1.000 Si
  Si44 1.0000 0.17560 0.29820 0.85320 Biso 1.000 Si
  Si45 1.0000 0.67560 0.79820 0.89680 Biso 1.000 Si
  Si46 1.0000 0.17560 0.29820 0.64680 Biso 1.000 Si
  Si47 1.0000 0.32440 0.79820 0.89680 Biso 1.000 Si
  Si48 1.0000 0.82440 0.29820 0.64680 Biso 1.000 Si
  Si49 1.0000 0.67560 0.20180 0.89680 Biso 1.000 Si
  Si50 1.0000 0.17560 0.70180 0.64680 Biso 1.000 Si
  Si51 1.0000 0.32440 0.20180 0.89680 Biso 1.000 Si
  Si52 1.0000 0.82440 0.70180 0.64680 Biso 1.000 Si
  Si53 1.0000 0.08430 0.20040 0.50000 Biso 1.000 Si
  Si54 1.0000 0.58430 0.70040 0.75000 Biso 1.000 Si
  Si55 1.0000 0.91570 0.20040 0.50000 Biso 1.000 Si
  Si56 1.0000 0.41570 0.70040 0.75000 Biso 1.000 Si
  Si57 1.0000 0.08430 0.79960 0.50000 Biso 1.000 Si
  Si58 1.0000 0.58430 0.29960 0.75000 Biso 1.000 Si
  Si59 1.0000 0.91570 0.79960 0.50000 Biso 1.000 Si
  Si60 1.0000 0.41570 0.29960 0.75000 Biso 1.000 Si
  Si61 1.0000 0.27430 0.00000 0.64675 Biso 1.000 Si
  Si62 1.0000 0.77430 0.50000 0.89675 Biso 1.000 Si
  Si63 1.0000 0.72570 0.00000 0.64675 Biso 1.000 Si
  Si64 1.0000 0.22570 0.50000 0.89675 Biso 1.000 Si
  Si65 1.0000 0.72570 0.00000 0.85325 Biso 1.000 Si
  Si66 1.0000 0.22570 0.50000 0.60325 Biso 1.000 Si
  Si67 1.0000 0.27430 0.00000 0.85325 Biso 1.000 Si
  Si68 1.0000 0.77430 0.50000 0.60325 Biso 1.000 Si
  Si69 1.0000 0.15530 0.00000 0.50000 Biso 1.000 Si
  Si70 1.0000 0.65530 0.50000 0.75000 Biso 1.000 Si
  Si71 1.0000 0.84470 0.00000 0.50000 Biso 1.000 Si
  Si72 1.0000 0.34470 0.50000 0.75000 Biso 1.000 Si
  O1 1.0000 0.32010 0.09180 0.12505 Biso 1.000 O
  O2 1.0000 0.82010 0.59180 0.37505 Biso 1.000 O
  O3 1.0000 0.67990 0.09180 0.12505 Biso 1.000 O
  O4 1.0000 0.17990 0.59180 0.37505 Biso 1.000 O
  O5 1.0000 0.32010 0.90820 0.12505 Biso 1.000 O
  O6 1.0000 0.82010 0.40820 0.37505 Biso 1.000 O
  O7 1.0000 0.67990 0.90820 0.12505 Biso 1.000 O
  O8 1.0000 0.17990 0.40820 0.37505 Biso 1.000 O
  O9 1.0000 0.67990 0.90820 0.37495 Biso 1.000 O
  O10 1.0000 0.17990 0.40820 0.12495 Biso 1.000 O
  O11 1.0000 0.32010 0.90820 0.37495 Biso 1.000 O
  O12 1.0000 0.82010 0.40820 0.12495 Biso 1.000 O
  O13 1.0000 0.67990 0.09180 0.37495 Biso 1.000 O
  O14 1.0000 0.17990 0.59180 0.12495 Biso 1.000 O
  O15 1.0000 0.32010 0.09180 0.37495 Biso 1.000 O
  O16 1.0000 0.82010 0.59180 0.12495 Biso 1.000 O
  O17 1.0000 0.38480 0.24930 0.16285 Biso 1.000 O
  O18 1.0000 0.88480 0.74930 0.41285 Biso 1.000 O
  O19 1.0000 0.61520 0.24930 0.16285 Biso 1.000 O
  O20 1.0000 0.11520 0.74930 0.41285 Biso 1.000 O
  O21 1.0000 0.38480 0.75070 0.16285 Biso 1.000 O
  O22 1.0000 0.88480 0.25070 0.41285 Biso 1.000 O
  O23 1.0000 0.61520 0.75070 0.16285 Biso 1.000 O
  O24 1.0000 0.11520 0.25070 0.41285 Biso 1.000 O
  O25 1.0000 0.61520 0.75070 0.33715 Biso 1.000 O
  O26 1.0000 0.11520 0.25070 0.08715 Biso 1.000 O
  O27 1.0000 0.38480 0.75070 0.33715 Biso 1.000 O
  O28 1.0000 0.88480 0.25070 0.08715 Biso 1.000 O
  O29 1.0000 0.61520 0.24930 0.33715 Biso 1.000 O
  O30 1.0000 0.11520 0.74930 0.08715 Biso 1.000 O
  O31 1.0000 0.38480 0.24930 0.33715 Biso 1.000 O
  O32 1.0000 0.88480 0.74930 0.08715 Biso 1.000 O
  O33 1.0000 0.34290 0.21620 0.00000 Biso 1.000 O
  O34 1.0000 0.84290 0.71620 0.25000 Biso 1.000 O
  O35 1.0000 0.65710 0.21620 0.00000 Biso 1.000 O
  O36 1.0000 0.15710 0.71620 0.25000 Biso 1.000 O
  O37 1.0000 0.34290 0.78380 0.00000 Biso 1.000 O
  O38 1.0000 0.84290 0.28380 0.25000 Biso 1.000 O
  O39 1.0000 0.65710 0.78380 0.00000 Biso 1.000 O
  O40 1.0000 0.15710 0.28380 0.25000 Biso 1.000 O
  O41 1.0000 0.25000 0.25000 0.12500 Biso 1.000 O
  O42 1.0000 0.75000 0.75000 0.37500 Biso 1.000 O
  O43 1.0000 0.75000 0.25000 0.12500 Biso 1.000 O
  O44 1.0000 0.25000 0.75000 0.37500 Biso 1.000 O
  O45 1.0000 0.25000 0.75000 0.12500 Biso 1.000 O
  O46 1.0000 0.75000 0.25000 0.37500 Biso 1.000 O
  O47 1.0000 0.75000 0.75000 0.12500 Biso 1.000 O
  O48 1.0000 0.25000 0.25000 0.37500 Biso 1.000 O
  O49 1.0000 0.10630 0.09180 0.00000 Biso 1.000 O
  O50 1.0000 0.60630 0.59180 0.25000 Biso 1.000 O
  O51 1.0000 0.89370 0.09180 0.00000 Biso 1.000 O
  O52 1.0000 0.39370 0.59180 0.25000 Biso 1.000 O
  O53 1.0000 0.10630 0.90820 0.00000 Biso 1.000 O
  O54 1.0000 0.60630 0.40820 0.25000 Biso 1.000 O
  O55 1.0000 0.89370 0.90820 0.00000 Biso 1.000 O
  O56 1.0000 0.39370 0.40820 0.25000 Biso 1.000 O
  O57 1.0000 0.00000 0.20940 0.00000 Biso 1.000 O
  O58 1.0000 0.50000 0.70940 0.25000 Biso 1.000 O
  O59 1.0000 0.00000 0.79060 0.00000 Biso 1.000 O
  O60 1.0000 0.50000 0.29060 0.25000 Biso 1.000 O
  O61 1.0000 0.20410 0.00000 0.08715 Biso 1.000 O
  O62 1.0000 0.70410 0.50000 0.33715 Biso 1.000 O
  O63 1.0000 0.79590 0.00000 0.08715 Biso 1.000 O
  O64 1.0000 0.29590 0.50000 0.33715 Biso 1.000 O
  O65 1.0000 0.79590 0.00000 0.41285 Biso 1.000 O
  O66 1.0000 0.29590 0.50000 0.16285 Biso 1.000 O
  O67 1.0000 0.20410 0.00000 0.41285 Biso 1.000 O
  O68 1.0000 0.70410 0.50000 0.16285 Biso 1.000 O
  O69 1.0000 0.25290 0.00000 0.25000 Biso 1.000 O
  O70 1.0000 0.75290 0.50000 0.00000 Biso 1.000 O
  O71 1.0000 0.74710 0.00000 0.25000 Biso 1.000 O
  O72 1.0000 0.24710 0.50000 0.00000 Biso 1.000 O
  O73 1.0000 0.32010 0.09180 0.62505 Biso 1.000 O
  O74 1.0000 0.82010 0.59180 0.87505 Biso 1.000 O
  O75 1.0000 0.67990 0.09180 0.62505 Biso 1.000 O
  O76 1.0000 0.17990 0.59180 0.87505 Biso 1.000 O
  O77 1.0000 0.32010 0.90820 0.62505 Biso 1.000 O
  O78 1.0000 0.82010 0.40820 0.87505 Biso 1.000 O
  O79 1.0000 0.67990 0.90820 0.62505 Biso 1.000 O
  O80 1.0000 0.17990 0.40820 0.87505 Biso 1.000 O
  O81 1.0000 0.67990 0.90820 0.87495 Biso 1.000 O
  O82 1.0000 0.17990 0.40820 0.62495 Biso 1.000 O
  O83 1.0000 0.32010 0.90820 0.87495 Biso 1.000 O
  O84 1.0000 0.82010 0.40820 0.62495 Biso 1.000 O
  O85 1.0000 0.67990 0.09180 0.87495 Biso 1.000 O
  O86 1.0000 0.17990 0.59180 0.62495 Biso 1.000 O
  O87 1.0000 0.32010 0.09180 0.87495 Biso 1.000 O
  O88 1.0000 0.82010 0.59180 0.62495 Biso 1.000 O
  O89 1.0000 0.38480 0.24930 0.66285 Biso 1.000 O
  O90 1.0000 0.88480 0.74930 0.91285 Biso 1.000 O
  O91 1.0000 0.61520 0.24930 0.66285 Biso 1.000 O
  O92 1.0000 0.11520 0.74930 0.91285 Biso 1.000 O
  O93 1.0000 0.38480 0.75070 0.66285 Biso 1.000 O
  O94 1.0000 0.88480 0.25070 0.91285 Biso 1.000 O
  O95 1.0000 0.61520 0.75070 0.66285 Biso 1.000 O
  O96 1.0000 0.11520 0.25070 0.91285 Biso 1.000 O
  O97 1.0000 0.61520 0.75070 0.83715 Biso 1.000 O
  O98 1.0000 0.11520 0.25070 0.58715 Biso 1.000 O
  O99 1.0000 0.38480 0.75070 0.83715 Biso 1.000 O
  O100 1.0000 0.88480 0.25070 0.58715 Biso 1.000 O
  O101 1.0000 0.61520 0.24930 0.83715 Biso 1.000 O
  O102 1.0000 0.11520 0.74930 0.58715 Biso 1.000 O
  O103 1.0000 0.38480 0.24930 0.83715 Biso 1.000 O
  O104 1.0000 0.88480 0.74930 0.58715 Biso 1.000 O
  O105 1.0000 0.34290 0.21620 0.50000 Biso 1.000 O
  O106 1.0000 0.84290 0.71620 0.75000 Biso 1.000 O
  O107 1.0000 0.65710 0.21620 0.50000 Biso 1.000 O
  O108 1.0000 0.15710 0.71620 0.75000 Biso 1.000 O
  O109 1.0000 0.34290 0.78380 0.50000 Biso 1.000 O
  O110 1.0000 0.84290 0.28380 0.75000 Biso 1.000 O
  O111 1.0000 0.65710 0.78380 0.50000 Biso 1.000 O
  O112 1.0000 0.15710 0.28380 0.75000 Biso 1.000 O
  O113 1.0000 0.25000 0.25000 0.62500 Biso 1.000 O
  O114 1.0000 0.75000 0.75000 0.87500 Biso 1.000 O
  O115 1.0000 0.75000 0.25000 0.62500 Biso 1.000 O
  O116 1.0000 0.25000 0.75000 0.87500 Biso 1.000 O
  O117 1.0000 0.25000 0.75000 0.62500 Biso 1.000 O
  O118 1.0000 0.75000 0.25000 0.87500 Biso 1.000 O
  O119 1.0000 0.75000 0.75000 0.62500 Biso 1.000 O
  O120 1.0000 0.25000 0.25000 0.87500 Biso 1.000 O
  O121 1.0000 0.10630 0.09180 0.50000 Biso 1.000 O
  O122 1.0000 0.60630 0.59180 0.75000 Biso 1.000 O
  O123 1.0000 0.89370 0.09180 0.50000 Biso 1.000 O
  O124 1.0000 0.39370 0.59180 0.75000 Biso 1.000 O
  O125 1.0000 0.10630 0.90820 0.50000 Biso 1.000 O
  O126 1.0000 0.60630 0.40820 0.75000 Biso 1.000 O
  O127 1.0000 0.89370 0.90820 0.50000 Biso 1.000 O
  O128 1.0000 0.39370 0.40820 0.75000 Biso 1.000 O
  O129 1.0000 0.00000 0.20940 0.50000 Biso 1.000 O
  O130 1.0000 0.50000 0.70940 0.75000 Biso 1.000 O
  O131 1.0000 0.00000 0.79060 0.50000 Biso 1.000 O
  O132 1.0000 0.50000 0.29060 0.75000 Biso 1.000 O
  O133 1.0000 0.20410 0.00000 0.58715 Biso 1.000 O
  O134 1.0000 0.70410 0.50000 0.83715 Biso 1.000 O
  O135 1.0000 0.79590 0.00000 0.58715 Biso 1.000 O
  O136 1.0000 0.29590 0.50000 0.83715 Biso 1.000 O
  O137 1.0000 0.79590 0.00000 0.91285 Biso 1.000 O
  O138 1.0000 0.29590 0.50000 0.66285 Biso 1.000 O
  O139 1.0000 0.20410 0.00000 0.91285 Biso 1.000 O
  O140 1.0000 0.70410 0.50000 0.66285 Biso 1.000 O
  O141 1.0000 0.25290 0.00000 0.75000 Biso 1.000 O
  O142 1.0000 0.75290 0.50000 0.50000 Biso 1.000 O
  O143 1.0000 0.74710 0.00000 0.75000 Biso 1.000 O
  O144 1.0000 0.24710 0.50000 0.50000 Biso 1.000 O
